
---------- Begin Simulation Statistics ----------
sim_seconds                                 38.931421                       # Number of seconds simulated
sim_ticks                                38931420792000                       # Number of ticks simulated
final_tick                               38931420792000                       # Number of ticks from beginning of simulation (restored from checkpoints and never reset)
sim_freq                                 1000000000000                       # Frequency of simulated ticks
host_inst_rate                                 346804                       # Simulator instruction rate (inst/s)
host_op_rate                                   346804                       # Simulator op (including micro ops) rate (op/s)
host_tick_rate                            24246185208                       # Simulator tick rate (ticks/s)
host_mem_usage                                 641552                       # Number of bytes of host memory used
host_seconds                                  1605.67                       # Real time elapsed on the host
sim_insts                                   556853517                       # Number of instructions simulated
sim_ops                                     556853517                       # Number of ops (including micro ops) simulated
system.voltage_domain.voltage                       1                       # Voltage in Volts
system.clk_domain.clock                          1000                       # Clock period in ticks
system.mem_ctrls.pwrStateResidencyTicks::UNDEFINED 38931420792000                       # Cumulative time (in ticks) in various power states
system.mem_ctrls.bytes_read::.cpu.inst     2227414172                       # Number of bytes read from this memory
system.mem_ctrls.bytes_read::.cpu.data      579284947                       # Number of bytes read from this memory
system.mem_ctrls.bytes_read::total         2806699119                       # Number of bytes read from this memory
system.mem_ctrls.bytes_inst_read::.cpu.inst   2227414172                       # Number of instructions bytes read from this memory
system.mem_ctrls.bytes_inst_read::total    2227414172                       # Number of instructions bytes read from this memory
system.mem_ctrls.bytes_written::.cpu.data    356020162                       # Number of bytes written to this memory
system.mem_ctrls.bytes_written::total       356020162                       # Number of bytes written to this memory
system.mem_ctrls.num_reads::.cpu.inst       556853543                       # Number of read requests responded to by this memory
system.mem_ctrls.num_reads::.cpu.data        89159904                       # Number of read requests responded to by this memory
system.mem_ctrls.num_reads::total           646013447                       # Number of read requests responded to by this memory
system.mem_ctrls.num_writes::.cpu.data       51289004                       # Number of write requests responded to by this memory
system.mem_ctrls.num_writes::total           51289004                       # Number of write requests responded to by this memory
system.mem_ctrls.bw_read::.cpu.inst          57213791                       # Total read bandwidth from this memory (bytes/s)
system.mem_ctrls.bw_read::.cpu.data          14879625                       # Total read bandwidth from this memory (bytes/s)
system.mem_ctrls.bw_read::total              72093416                       # Total read bandwidth from this memory (bytes/s)
system.mem_ctrls.bw_inst_read::.cpu.inst     57213791                       # Instruction read bandwidth from this memory (bytes/s)
system.mem_ctrls.bw_inst_read::total         57213791                       # Instruction read bandwidth from this memory (bytes/s)
system.mem_ctrls.bw_write::.cpu.data          9144803                       # Write bandwidth from this memory (bytes/s)
system.mem_ctrls.bw_write::total              9144803                       # Write bandwidth from this memory (bytes/s)
system.mem_ctrls.bw_total::.cpu.inst         57213791                       # Total bandwidth to/from this memory (bytes/s)
system.mem_ctrls.bw_total::.cpu.data         24024428                       # Total bandwidth to/from this memory (bytes/s)
system.mem_ctrls.bw_total::total             81238219                       # Total bandwidth to/from this memory (bytes/s)
system.mem_ctrls.avgPriority_.cpu.inst::samples 556853544.00                       # Average QoS priority value for accepted requests
system.mem_ctrls.avgPriority_.cpu.data::samples  74396674.00                       # Average QoS priority value for accepted requests
system.mem_ctrls.priorityMinLatency      0.000000018750                       # per QoS priority minimum request to response latency (s)
system.mem_ctrls.priorityMaxLatency      20.761113856750                       # per QoS priority maximum request to response latency (s)
system.mem_ctrls.numReadWriteTurnArounds        97323                       # Number of turnarounds from READ to WRITE
system.mem_ctrls.numWriteReadTurnArounds        97323                       # Number of turnarounds from WRITE to READ
system.mem_ctrls.numStayReadState          1319669976                       # Number of times bus staying in READ state
system.mem_ctrls.numStayWriteState            1461642                       # Number of times bus staying in WRITE state
system.mem_ctrls.readReqs                   646013448                       # Number of read requests accepted
system.mem_ctrls.writeReqs                   51289004                       # Number of write requests accepted
system.mem_ctrls.readBursts                 646013448                       # Number of DRAM read bursts, including those serviced by the write queue
system.mem_ctrls.writeBursts                 51289004                       # Number of DRAM write bursts, including those merged in the write queue
system.mem_ctrls.bytesReadDRAM            40300353472                       # Total number of bytes read from DRAM
system.mem_ctrls.bytesReadWrQ              1044507200                       # Total number of bytes read from write queue
system.mem_ctrls.bytesWritten                99658752                       # Total number of bytes written to DRAM
system.mem_ctrls.bytesReadSys              2806699123                       # Total read bytes from the system interface side
system.mem_ctrls.bytesWrittenSys            356020162                       # Total written bytes from the system interface side
system.mem_ctrls.servicedByWrQ               16320425                       # Number of DRAM read bursts serviced by the write queue
system.mem_ctrls.mergedWrBursts              49731809                       # Number of DRAM write bursts merged with an existing one
system.mem_ctrls.neitherReadNorWriteReqs            0                       # Number of requests that are neither read nor write
system.mem_ctrls.perBankRdBursts::0          81639949                       # Per bank write bursts
system.mem_ctrls.perBankRdBursts::1          96102291                       # Per bank write bursts
system.mem_ctrls.perBankRdBursts::2          57390453                       # Per bank write bursts
system.mem_ctrls.perBankRdBursts::3          39599609                       # Per bank write bursts
system.mem_ctrls.perBankRdBursts::4           1804703                       # Per bank write bursts
system.mem_ctrls.perBankRdBursts::5           1672805                       # Per bank write bursts
system.mem_ctrls.perBankRdBursts::6          36288656                       # Per bank write bursts
system.mem_ctrls.perBankRdBursts::7           8250183                       # Per bank write bursts
system.mem_ctrls.perBankRdBursts::8              2355                       # Per bank write bursts
system.mem_ctrls.perBankRdBursts::9          12753457                       # Per bank write bursts
system.mem_ctrls.perBankRdBursts::10          2798530                       # Per bank write bursts
system.mem_ctrls.perBankRdBursts::11           477530                       # Per bank write bursts
system.mem_ctrls.perBankRdBursts::12          4611934                       # Per bank write bursts
system.mem_ctrls.perBankRdBursts::13         24436668                       # Per bank write bursts
system.mem_ctrls.perBankRdBursts::14        101448939                       # Per bank write bursts
system.mem_ctrls.perBankRdBursts::15        160414961                       # Per bank write bursts
system.mem_ctrls.perBankWrBursts::0                 0                       # Per bank write bursts
system.mem_ctrls.perBankWrBursts::1           1357507                       # Per bank write bursts
system.mem_ctrls.perBankWrBursts::2                11                       # Per bank write bursts
system.mem_ctrls.perBankWrBursts::3                 0                       # Per bank write bursts
system.mem_ctrls.perBankWrBursts::4             64457                       # Per bank write bursts
system.mem_ctrls.perBankWrBursts::5                 0                       # Per bank write bursts
system.mem_ctrls.perBankWrBursts::6                 0                       # Per bank write bursts
system.mem_ctrls.perBankWrBursts::7                 0                       # Per bank write bursts
system.mem_ctrls.perBankWrBursts::8                 0                       # Per bank write bursts
system.mem_ctrls.perBankWrBursts::9             89100                       # Per bank write bursts
system.mem_ctrls.perBankWrBursts::10               38                       # Per bank write bursts
system.mem_ctrls.perBankWrBursts::11            46055                       # Per bank write bursts
system.mem_ctrls.perBankWrBursts::12                0                       # Per bank write bursts
system.mem_ctrls.perBankWrBursts::13                0                       # Per bank write bursts
system.mem_ctrls.perBankWrBursts::14                0                       # Per bank write bursts
system.mem_ctrls.perBankWrBursts::15                0                       # Per bank write bursts
system.mem_ctrls.numRdRetry                         0                       # Number of times read queue was full causing retry
system.mem_ctrls.numWrRetry                         0                       # Number of times write queue was full causing retry
system.mem_ctrls.totGap                  38931420715000                       # Total gap between requests
system.mem_ctrls.readPktSize::0              11933361                       # Read request sizes (log2)
system.mem_ctrls.readPktSize::1                117925                       # Read request sizes (log2)
system.mem_ctrls.readPktSize::2             569291846                       # Read request sizes (log2)
system.mem_ctrls.readPktSize::3              64670316                       # Read request sizes (log2)
system.mem_ctrls.readPktSize::4                     0                       # Read request sizes (log2)
system.mem_ctrls.readPktSize::5                     0                       # Read request sizes (log2)
system.mem_ctrls.readPktSize::6                     0                       # Read request sizes (log2)
system.mem_ctrls.writePktSize::0              5130254                       # Write request sizes (log2)
system.mem_ctrls.writePktSize::1                    0                       # Write request sizes (log2)
system.mem_ctrls.writePktSize::2              4595023                       # Write request sizes (log2)
system.mem_ctrls.writePktSize::3             41563727                       # Write request sizes (log2)
system.mem_ctrls.writePktSize::4                    0                       # Write request sizes (log2)
system.mem_ctrls.writePktSize::5                    0                       # Write request sizes (log2)
system.mem_ctrls.writePktSize::6                    0                       # Write request sizes (log2)
system.mem_ctrls.rdQLenPdf::0               629693023                       # What read queue length does an incoming req see
system.mem_ctrls.rdQLenPdf::1                       0                       # What read queue length does an incoming req see
system.mem_ctrls.rdQLenPdf::2                       0                       # What read queue length does an incoming req see
system.mem_ctrls.rdQLenPdf::3                       0                       # What read queue length does an incoming req see
system.mem_ctrls.rdQLenPdf::4                       0                       # What read queue length does an incoming req see
system.mem_ctrls.rdQLenPdf::5                       0                       # What read queue length does an incoming req see
system.mem_ctrls.rdQLenPdf::6                       0                       # What read queue length does an incoming req see
system.mem_ctrls.rdQLenPdf::7                       0                       # What read queue length does an incoming req see
system.mem_ctrls.rdQLenPdf::8                       0                       # What read queue length does an incoming req see
system.mem_ctrls.rdQLenPdf::9                       0                       # What read queue length does an incoming req see
system.mem_ctrls.rdQLenPdf::10                      0                       # What read queue length does an incoming req see
system.mem_ctrls.rdQLenPdf::11                      0                       # What read queue length does an incoming req see
system.mem_ctrls.rdQLenPdf::12                      0                       # What read queue length does an incoming req see
system.mem_ctrls.rdQLenPdf::13                      0                       # What read queue length does an incoming req see
system.mem_ctrls.rdQLenPdf::14                      0                       # What read queue length does an incoming req see
system.mem_ctrls.rdQLenPdf::15                      0                       # What read queue length does an incoming req see
system.mem_ctrls.rdQLenPdf::16                      0                       # What read queue length does an incoming req see
system.mem_ctrls.rdQLenPdf::17                      0                       # What read queue length does an incoming req see
system.mem_ctrls.rdQLenPdf::18                      0                       # What read queue length does an incoming req see
system.mem_ctrls.rdQLenPdf::19                      0                       # What read queue length does an incoming req see
system.mem_ctrls.rdQLenPdf::20                      0                       # What read queue length does an incoming req see
system.mem_ctrls.rdQLenPdf::21                      0                       # What read queue length does an incoming req see
system.mem_ctrls.rdQLenPdf::22                      0                       # What read queue length does an incoming req see
system.mem_ctrls.rdQLenPdf::23                      0                       # What read queue length does an incoming req see
system.mem_ctrls.rdQLenPdf::24                      0                       # What read queue length does an incoming req see
system.mem_ctrls.rdQLenPdf::25                      0                       # What read queue length does an incoming req see
system.mem_ctrls.rdQLenPdf::26                      0                       # What read queue length does an incoming req see
system.mem_ctrls.rdQLenPdf::27                      0                       # What read queue length does an incoming req see
system.mem_ctrls.rdQLenPdf::28                      0                       # What read queue length does an incoming req see
system.mem_ctrls.rdQLenPdf::29                      0                       # What read queue length does an incoming req see
system.mem_ctrls.rdQLenPdf::30                      0                       # What read queue length does an incoming req see
system.mem_ctrls.rdQLenPdf::31                      0                       # What read queue length does an incoming req see
system.mem_ctrls.wrQLenPdf::0                       1                       # What write queue length does an incoming req see
system.mem_ctrls.wrQLenPdf::1                       1                       # What write queue length does an incoming req see
system.mem_ctrls.wrQLenPdf::2                       1                       # What write queue length does an incoming req see
system.mem_ctrls.wrQLenPdf::3                       1                       # What write queue length does an incoming req see
system.mem_ctrls.wrQLenPdf::4                       1                       # What write queue length does an incoming req see
system.mem_ctrls.wrQLenPdf::5                       1                       # What write queue length does an incoming req see
system.mem_ctrls.wrQLenPdf::6                       1                       # What write queue length does an incoming req see
system.mem_ctrls.wrQLenPdf::7                       1                       # What write queue length does an incoming req see
system.mem_ctrls.wrQLenPdf::8                       1                       # What write queue length does an incoming req see
system.mem_ctrls.wrQLenPdf::9                       1                       # What write queue length does an incoming req see
system.mem_ctrls.wrQLenPdf::10                      1                       # What write queue length does an incoming req see
system.mem_ctrls.wrQLenPdf::11                      1                       # What write queue length does an incoming req see
system.mem_ctrls.wrQLenPdf::12                      1                       # What write queue length does an incoming req see
system.mem_ctrls.wrQLenPdf::13                      1                       # What write queue length does an incoming req see
system.mem_ctrls.wrQLenPdf::14                      1                       # What write queue length does an incoming req see
system.mem_ctrls.wrQLenPdf::15                      1                       # What write queue length does an incoming req see
system.mem_ctrls.wrQLenPdf::16                      1                       # What write queue length does an incoming req see
system.mem_ctrls.wrQLenPdf::17                  97324                       # What write queue length does an incoming req see
system.mem_ctrls.wrQLenPdf::18                  97324                       # What write queue length does an incoming req see
system.mem_ctrls.wrQLenPdf::19                  97324                       # What write queue length does an incoming req see
system.mem_ctrls.wrQLenPdf::20                  97324                       # What write queue length does an incoming req see
system.mem_ctrls.wrQLenPdf::21                  97324                       # What write queue length does an incoming req see
system.mem_ctrls.wrQLenPdf::22                  97324                       # What write queue length does an incoming req see
system.mem_ctrls.wrQLenPdf::23                  97324                       # What write queue length does an incoming req see
system.mem_ctrls.wrQLenPdf::24                  97324                       # What write queue length does an incoming req see
system.mem_ctrls.wrQLenPdf::25                  97324                       # What write queue length does an incoming req see
system.mem_ctrls.wrQLenPdf::26                  97324                       # What write queue length does an incoming req see
system.mem_ctrls.wrQLenPdf::27                  97323                       # What write queue length does an incoming req see
system.mem_ctrls.wrQLenPdf::28                  97323                       # What write queue length does an incoming req see
system.mem_ctrls.wrQLenPdf::29                  97323                       # What write queue length does an incoming req see
system.mem_ctrls.wrQLenPdf::30                  97323                       # What write queue length does an incoming req see
system.mem_ctrls.wrQLenPdf::31                  97323                       # What write queue length does an incoming req see
system.mem_ctrls.wrQLenPdf::32                  97323                       # What write queue length does an incoming req see
system.mem_ctrls.wrQLenPdf::33                      0                       # What write queue length does an incoming req see
system.mem_ctrls.wrQLenPdf::34                      0                       # What write queue length does an incoming req see
system.mem_ctrls.wrQLenPdf::35                      0                       # What write queue length does an incoming req see
system.mem_ctrls.wrQLenPdf::36                      0                       # What write queue length does an incoming req see
system.mem_ctrls.wrQLenPdf::37                      0                       # What write queue length does an incoming req see
system.mem_ctrls.wrQLenPdf::38                      0                       # What write queue length does an incoming req see
system.mem_ctrls.wrQLenPdf::39                      0                       # What write queue length does an incoming req see
system.mem_ctrls.wrQLenPdf::40                      0                       # What write queue length does an incoming req see
system.mem_ctrls.wrQLenPdf::41                      0                       # What write queue length does an incoming req see
system.mem_ctrls.wrQLenPdf::42                      0                       # What write queue length does an incoming req see
system.mem_ctrls.wrQLenPdf::43                      0                       # What write queue length does an incoming req see
system.mem_ctrls.wrQLenPdf::44                      0                       # What write queue length does an incoming req see
system.mem_ctrls.wrQLenPdf::45                      0                       # What write queue length does an incoming req see
system.mem_ctrls.wrQLenPdf::46                      0                       # What write queue length does an incoming req see
system.mem_ctrls.wrQLenPdf::47                      0                       # What write queue length does an incoming req see
system.mem_ctrls.wrQLenPdf::48                      0                       # What write queue length does an incoming req see
system.mem_ctrls.wrQLenPdf::49                      0                       # What write queue length does an incoming req see
system.mem_ctrls.wrQLenPdf::50                      0                       # What write queue length does an incoming req see
system.mem_ctrls.wrQLenPdf::51                      0                       # What write queue length does an incoming req see
system.mem_ctrls.wrQLenPdf::52                      0                       # What write queue length does an incoming req see
system.mem_ctrls.wrQLenPdf::53                      0                       # What write queue length does an incoming req see
system.mem_ctrls.wrQLenPdf::54                      0                       # What write queue length does an incoming req see
system.mem_ctrls.wrQLenPdf::55                      0                       # What write queue length does an incoming req see
system.mem_ctrls.wrQLenPdf::56                      0                       # What write queue length does an incoming req see
system.mem_ctrls.wrQLenPdf::57                      0                       # What write queue length does an incoming req see
system.mem_ctrls.wrQLenPdf::58                      0                       # What write queue length does an incoming req see
system.mem_ctrls.wrQLenPdf::59                      0                       # What write queue length does an incoming req see
system.mem_ctrls.wrQLenPdf::60                      0                       # What write queue length does an incoming req see
system.mem_ctrls.wrQLenPdf::61                      0                       # What write queue length does an incoming req see
system.mem_ctrls.wrQLenPdf::62                      0                       # What write queue length does an incoming req see
system.mem_ctrls.wrQLenPdf::63                      0                       # What write queue length does an incoming req see
system.mem_ctrls.bytesPerActivate::samples     73264286                       # Bytes accessed per row activation
system.mem_ctrls.bytesPerActivate::mean    551.428423                       # Bytes accessed per row activation
system.mem_ctrls.bytesPerActivate::gmean   336.532310                       # Bytes accessed per row activation
system.mem_ctrls.bytesPerActivate::stdev   414.311078                       # Bytes accessed per row activation
system.mem_ctrls.bytesPerActivate::0-127     18383440     25.09%     25.09% # Bytes accessed per row activation
system.mem_ctrls.bytesPerActivate::128-255      8397629     11.46%     36.55% # Bytes accessed per row activation
system.mem_ctrls.bytesPerActivate::256-383      4607944      6.29%     42.84% # Bytes accessed per row activation
system.mem_ctrls.bytesPerActivate::384-511      4546114      6.21%     49.05% # Bytes accessed per row activation
system.mem_ctrls.bytesPerActivate::512-639      4260872      5.82%     54.86% # Bytes accessed per row activation
system.mem_ctrls.bytesPerActivate::640-767      2036975      2.78%     57.64% # Bytes accessed per row activation
system.mem_ctrls.bytesPerActivate::768-895      2331032      3.18%     60.83% # Bytes accessed per row activation
system.mem_ctrls.bytesPerActivate::896-1023      1688572      2.30%     63.13% # Bytes accessed per row activation
system.mem_ctrls.bytesPerActivate::1024-1151     27011708     36.87%    100.00% # Bytes accessed per row activation
system.mem_ctrls.bytesPerActivate::total     73264286                       # Bytes accessed per row activation
system.mem_ctrls.rdPerTurnAround::samples        97323                       # Reads before turning the bus around for writes
system.mem_ctrls.rdPerTurnAround::mean    6470.129229                       # Reads before turning the bus around for writes
system.mem_ctrls.rdPerTurnAround::gmean   3441.627953                       # Reads before turning the bus around for writes
system.mem_ctrls.rdPerTurnAround::stdev  541903.213671                       # Reads before turning the bus around for writes
system.mem_ctrls.rdPerTurnAround::0-8.38861e+06        97322    100.00%    100.00% # Reads before turning the bus around for writes
system.mem_ctrls.rdPerTurnAround::1.67772e+08-1.76161e+08            1      0.00%    100.00% # Reads before turning the bus around for writes
system.mem_ctrls.rdPerTurnAround::total         97323                       # Reads before turning the bus around for writes
system.mem_ctrls.wrPerTurnAround::samples        97323                       # Writes before turning the bus around for reads
system.mem_ctrls.wrPerTurnAround::mean             16                       # Writes before turning the bus around for reads
system.mem_ctrls.wrPerTurnAround::gmean     16.000000                       # Writes before turning the bus around for reads
system.mem_ctrls.wrPerTurnAround::16            97323    100.00%    100.00% # Writes before turning the bus around for reads
system.mem_ctrls.wrPerTurnAround::total         97323                       # Writes before turning the bus around for reads
system.mem_ctrls.masterReadBytes::.cpu.inst   2227414176                       # Per-master bytes read from memory
system.mem_ctrls.masterReadBytes::.cpu.data    461969783                       # Per-master bytes read from memory
system.mem_ctrls.masterWriteBytes::.cpu.data     11282576                       # Per-master bytes write to memory
system.mem_ctrls.masterReadRate::.cpu.inst 57213791.089219905436                       # Per-master bytes read from memory rate (Bytes/sec)
system.mem_ctrls.masterReadRate::.cpu.data 11866245.146001195535                       # Per-master bytes read from memory rate (Bytes/sec)
system.mem_ctrls.masterWriteRate::.cpu.data 289806.428084907006                       # Per-master bytes write to memory rate (Bytes/sec)
system.mem_ctrls.masterReadAccesses::.cpu.inst    556853544                       # Per-master read serviced memory accesses
system.mem_ctrls.masterReadAccesses::.cpu.data     89159904                       # Per-master read serviced memory accesses
system.mem_ctrls.masterWriteAccesses::.cpu.data     51289004                       # Per-master write serviced memory accesses
system.mem_ctrls.masterReadTotalLat::.cpu.inst 15863867315000                       # Per-master read total memory access latency
system.mem_ctrls.masterReadTotalLat::.cpu.data 2591845561000                       # Per-master read total memory access latency
system.mem_ctrls.masterWriteTotalLat::.cpu.data 1021595168526000                       # Per-master write total memory access latency
system.mem_ctrls.masterReadAvgLat::.cpu.inst     28488.40                       # Per-master read average memory access latency
system.mem_ctrls.masterReadAvgLat::.cpu.data     29069.63                       # Per-master read average memory access latency
system.mem_ctrls.masterWriteAvgLat::.cpu.data  19918405.29                       # Per-master write average memory access latency
system.mem_ctrls.totQLat                 6648968694750                       # Total ticks spent queuing
system.mem_ctrls.totMemAccLat            18455712876000                       # Total ticks spent from burst creation until serviced by the DRAM
system.mem_ctrls.totBusLat               3148465115000                       # Total ticks spent in databus transfers
system.mem_ctrls.avgQLat                     10559.06                       # Average queueing delay per DRAM burst
system.mem_ctrls.avgBusLat                    5000.00                       # Average bus latency per DRAM burst
system.mem_ctrls.avgMemAccLat                29309.06                       # Average memory access latency per DRAM burst
system.mem_ctrls.avgRdBW                      1035.16                       # Average DRAM read bandwidth in MiByte/s
system.mem_ctrls.avgWrBW                         2.56                       # Average achieved write bandwidth in MiByte/s
system.mem_ctrls.avgRdBWSys                     72.09                       # Average system read bandwidth in MiByte/s
system.mem_ctrls.avgWrBWSys                      9.14                       # Average system write bandwidth in MiByte/s
system.mem_ctrls.peakBW                      12800.00                       # Theoretical peak bandwidth in MiByte/s
system.mem_ctrls.busUtil                         8.11                       # Data bus utilization in percentage
system.mem_ctrls.busUtilRead                     8.09                       # Data bus utilization in percentage for reads
system.mem_ctrls.busUtilWrite                    0.02                       # Data bus utilization in percentage for writes
system.mem_ctrls.avgRdQLen                       1.00                       # Average read queue length when enqueuing
system.mem_ctrls.avgWrQLen                      26.81                       # Average write queue length when enqueuing
system.mem_ctrls.readRowHits                556617029                       # Number of row buffer hits during reads
system.mem_ctrls.writeRowHits                 1368872                       # Number of row buffer hits during writes
system.mem_ctrls.readRowHitRate                 88.39                       # Row buffer hit rate for reads
system.mem_ctrls.writeRowHitRate                87.91                       # Row buffer hit rate for writes
system.mem_ctrls.avgGap                      55831.47                       # Average gap between requests
system.mem_ctrls.pageHitRate                    88.39                       # Row buffer hit rate, read and write combined
system.mem_ctrls_0.actEnergy             330374475900                       # Energy for activate commands per rank (pJ)
system.mem_ctrls_0.preEnergy             175598194530                       # Energy for precharge commands per rank (pJ)
system.mem_ctrls_0.readEnergy            2304425346720                       # Energy for read commands per rank (pJ)
system.mem_ctrls_0.writeEnergy             7422709500                       # Energy for write commands per rank (pJ)
system.mem_ctrls_0.refreshEnergy         2729985024000.000488                       # Energy for refresh commands per rank (pJ)
system.mem_ctrls_0.actBackEnergy         4787653660020                       # Energy for active background per rank (pJ)
system.mem_ctrls_0.preBackEnergy         125760427200                       # Energy for precharge background per rank (pJ)
system.mem_ctrls_0.actPowerDownEnergy    8843445345150                       # Energy for active power-down per rank (pJ)
system.mem_ctrls_0.prePowerDownEnergy    1710498381600                       # Energy for precharge power-down per rank (pJ)
system.mem_ctrls_0.selfRefreshEnergy     1211814683280                       # Energy for self refresh per rank (pJ)
system.mem_ctrls_0.totalEnergy           22228679725860                       # Total energy per rank (pJ)
system.mem_ctrls_0.averagePower            570.970164                       # Core power per rank (mW)
system.mem_ctrls_0.totalIdleTime         28100894098000                       # Total Idle time Per DRAM Rank
system.mem_ctrls_0.memoryStateTime::IDLE 126913446000                       # Time in different power states
system.mem_ctrls_0.memoryStateTime::REF  1154816000000                       # Time in different power states
system.mem_ctrls_0.memoryStateTime::SREF 4252953376750                       # Time in different power states
system.mem_ctrls_0.memoryStateTime::PRE_PDN 4454423103500                       # Time in different power states
system.mem_ctrls_0.memoryStateTime::ACT  9548797248000                       # Time in different power states
system.mem_ctrls_0.memoryStateTime::ACT_PDN 19393517617750                       # Time in different power states
system.mem_ctrls_1.actEnergy             192732554700                       # Energy for activate commands per rank (pJ)
system.mem_ctrls_1.preEnergy             102439767045                       # Energy for precharge commands per rank (pJ)
system.mem_ctrls_1.readEnergy            2191582830360                       # Energy for read commands per rank (pJ)
system.mem_ctrls_1.writeEnergy              705707460                       # Energy for write commands per rank (pJ)
system.mem_ctrls_1.refreshEnergy         2879126805360.000488                       # Energy for refresh commands per rank (pJ)
system.mem_ctrls_1.actBackEnergy         4309804827570                       # Energy for active background per rank (pJ)
system.mem_ctrls_1.preBackEnergy         145963290720                       # Energy for precharge background per rank (pJ)
system.mem_ctrls_1.actPowerDownEnergy    9864892903920                       # Energy for active power-down per rank (pJ)
system.mem_ctrls_1.prePowerDownEnergy    1952604936480                       # Energy for precharge power-down per rank (pJ)
system.mem_ctrls_1.selfRefreshEnergy     732653715660                       # Energy for self refresh per rank (pJ)
system.mem_ctrls_1.totalEnergy           22374020603985                       # Total energy per rank (pJ)
system.mem_ctrls_1.averagePower            574.703418                       # Core power per rank (mW)
system.mem_ctrls_1.totalIdleTime         29096610269000                       # Total Idle time Per DRAM Rank
system.mem_ctrls_1.memoryStateTime::IDLE 139849979000                       # Time in different power states
system.mem_ctrls_1.memoryStateTime::REF  1217904740000                       # Time in different power states
system.mem_ctrls_1.memoryStateTime::SREF 2378173329750                       # Time in different power states
system.mem_ctrls_1.memoryStateTime::PRE_PDN 5084907300500                       # Time in different power states
system.mem_ctrls_1.memoryStateTime::ACT  8477054829750                       # Time in different power states
system.mem_ctrls_1.memoryStateTime::ACT_PDN 21633530613000                       # Time in different power states
system.pwrStateResidencyTicks::UNDEFINED 38931420792000                       # Cumulative time (in ticks) in various power states
system.cpu_voltage_domain.voltage                   1                       # Voltage in Volts
system.cpu_clk_domain.clock                       500                       # Clock period in ticks
system.cpu.dtb.fetch_hits                           0                       # ITB hits
system.cpu.dtb.fetch_misses                         0                       # ITB misses
system.cpu.dtb.fetch_acv                            0                       # ITB acv
system.cpu.dtb.fetch_accesses                       0                       # ITB accesses
system.cpu.dtb.read_hits                     89159904                       # DTB read hits
system.cpu.dtb.read_misses                         21                       # DTB read misses
system.cpu.dtb.read_acv                             0                       # DTB read access violations
system.cpu.dtb.read_accesses                 89159925                       # DTB read accesses
system.cpu.dtb.write_hits                    51289004                       # DTB write hits
system.cpu.dtb.write_misses                         5                       # DTB write misses
system.cpu.dtb.write_acv                            0                       # DTB write access violations
system.cpu.dtb.write_accesses                51289009                       # DTB write accesses
system.cpu.dtb.data_hits                    140448908                       # DTB hits
system.cpu.dtb.data_misses                         26                       # DTB misses
system.cpu.dtb.data_acv                             0                       # DTB access violations
system.cpu.dtb.data_accesses                140448934                       # DTB accesses
system.cpu.itb.fetch_hits                   556853544                       # ITB hits
system.cpu.itb.fetch_misses                        37                       # ITB misses
system.cpu.itb.fetch_acv                            0                       # ITB acv
system.cpu.itb.fetch_accesses               556853581                       # ITB accesses
system.cpu.itb.read_hits                            0                       # DTB read hits
system.cpu.itb.read_misses                          0                       # DTB read misses
system.cpu.itb.read_acv                             0                       # DTB read access violations
system.cpu.itb.read_accesses                        0                       # DTB read accesses
system.cpu.itb.write_hits                           0                       # DTB write hits
system.cpu.itb.write_misses                         0                       # DTB write misses
system.cpu.itb.write_acv                            0                       # DTB write access violations
system.cpu.itb.write_accesses                       0                       # DTB write accesses
system.cpu.itb.data_hits                            0                       # DTB hits
system.cpu.itb.data_misses                          0                       # DTB misses
system.cpu.itb.data_acv                             0                       # DTB access violations
system.cpu.itb.data_accesses                        0                       # DTB accesses
system.cpu.workload.numSyscalls                217039                       # Number of system calls
system.cpu.pwrStateResidencyTicks::ON    38931420792000                       # Cumulative time (in ticks) in various power states
system.cpu.numCycles                      77862841584                       # number of cpu cycles simulated
system.cpu.numWorkItemsStarted                      0                       # number of work items this cpu started
system.cpu.numWorkItemsCompleted                    0                       # number of work items this cpu completed
system.cpu.committedInsts                   556853517                       # Number of instructions committed
system.cpu.committedOps                     556853517                       # Number of ops (including micro ops) committed
system.cpu.num_int_alu_accesses             537272843                       # Number of integer alu accesses
system.cpu.num_fp_alu_accesses                3465064                       # Number of float alu accesses
system.cpu.num_vec_alu_accesses                     0                       # Number of vector alu accesses
system.cpu.num_func_calls                    14381405                       # number of times a function call or return occured
system.cpu.num_conditional_control_insts     62347739                       # number of instructions that are conditional controls
system.cpu.num_int_insts                    537272843                       # number of integer instructions
system.cpu.num_fp_insts                       3465064                       # number of float instructions
system.cpu.num_vec_insts                            0                       # number of vector instructions
system.cpu.num_int_register_reads           785903404                       # number of times the integer registers were read
system.cpu.num_int_register_writes          416659831                       # number of times the integer registers were written
system.cpu.num_fp_register_reads              4026971                       # number of times the floating registers were read
system.cpu.num_fp_register_writes             1772082                       # number of times the floating registers were written
system.cpu.num_vec_register_reads                   0                       # number of times the vector registers were read
system.cpu.num_vec_register_writes                  0                       # number of times the vector registers were written
system.cpu.num_mem_refs                     140448934                       # number of memory refs
system.cpu.num_load_insts                    89159925                       # Number of load instructions
system.cpu.num_store_insts                   51289009                       # Number of store instructions
system.cpu.num_idle_cycles                          0                       # Number of idle cycles
system.cpu.num_busy_cycles                77862841584                       # Number of busy cycles
system.cpu.not_idle_fraction                        1                       # Percentage of non-idle cycles
system.cpu.idle_fraction                            0                       # Percentage of idle cycles
system.cpu.Branches                          83925396                       # Number of branches fetched
system.cpu.op_class::No_OpClass              10180856      1.83%      1.83% # Class of executed instruction
system.cpu.op_class::IntAlu                 401296473     72.06%     73.89% # Class of executed instruction
system.cpu.op_class::IntMult                  3034543      0.54%     74.44% # Class of executed instruction
system.cpu.op_class::IntDiv                         0      0.00%     74.44% # Class of executed instruction
system.cpu.op_class::FloatAdd                  897130      0.16%     74.60% # Class of executed instruction
system.cpu.op_class::FloatCmp                  191234      0.03%     74.63% # Class of executed instruction
system.cpu.op_class::FloatCvt                  281149      0.05%     74.68% # Class of executed instruction
system.cpu.op_class::FloatMult                 204955      0.04%     74.72% # Class of executed instruction
system.cpu.op_class::FloatMultAcc                   0      0.00%     74.72% # Class of executed instruction
system.cpu.op_class::FloatDiv                   60615      0.01%     74.73% # Class of executed instruction
system.cpu.op_class::FloatMisc                      0      0.00%     74.73% # Class of executed instruction
system.cpu.op_class::FloatSqrt                   4361      0.00%     74.73% # Class of executed instruction
system.cpu.op_class::SimdAdd                        0      0.00%     74.73% # Class of executed instruction
system.cpu.op_class::SimdAddAcc                     0      0.00%     74.73% # Class of executed instruction
system.cpu.op_class::SimdAlu                        0      0.00%     74.73% # Class of executed instruction
system.cpu.op_class::SimdCmp                        0      0.00%     74.73% # Class of executed instruction
system.cpu.op_class::SimdCvt                        0      0.00%     74.73% # Class of executed instruction
system.cpu.op_class::SimdMisc                       0      0.00%     74.73% # Class of executed instruction
system.cpu.op_class::SimdMult                       0      0.00%     74.73% # Class of executed instruction
system.cpu.op_class::SimdMultAcc                    0      0.00%     74.73% # Class of executed instruction
system.cpu.op_class::SimdShift                      0      0.00%     74.73% # Class of executed instruction
system.cpu.op_class::SimdShiftAcc                   0      0.00%     74.73% # Class of executed instruction
system.cpu.op_class::SimdSqrt                       0      0.00%     74.73% # Class of executed instruction
system.cpu.op_class::SimdFloatAdd                   0      0.00%     74.73% # Class of executed instruction
system.cpu.op_class::SimdFloatAlu                   0      0.00%     74.73% # Class of executed instruction
system.cpu.op_class::SimdFloatCmp                   0      0.00%     74.73% # Class of executed instruction
system.cpu.op_class::SimdFloatCvt                   0      0.00%     74.73% # Class of executed instruction
system.cpu.op_class::SimdFloatDiv                   0      0.00%     74.73% # Class of executed instruction
system.cpu.op_class::SimdFloatMisc                  0      0.00%     74.73% # Class of executed instruction
system.cpu.op_class::SimdFloatMult                  0      0.00%     74.73% # Class of executed instruction
system.cpu.op_class::SimdFloatMultAcc               0      0.00%     74.73% # Class of executed instruction
system.cpu.op_class::SimdFloatSqrt                  0      0.00%     74.73% # Class of executed instruction
system.cpu.op_class::SimdAes                        0      0.00%     74.73% # Class of executed instruction
system.cpu.op_class::SimdAesMix                     0      0.00%     74.73% # Class of executed instruction
system.cpu.op_class::SimdSha1Hash                   0      0.00%     74.73% # Class of executed instruction
system.cpu.op_class::SimdSha1Hash2                  0      0.00%     74.73% # Class of executed instruction
system.cpu.op_class::SimdSha256Hash                 0      0.00%     74.73% # Class of executed instruction
system.cpu.op_class::SimdSha256Hash2                0      0.00%     74.73% # Class of executed instruction
system.cpu.op_class::SimdShaSigma2                  0      0.00%     74.73% # Class of executed instruction
system.cpu.op_class::SimdShaSigma3                  0      0.00%     74.73% # Class of executed instruction
system.cpu.op_class::MemRead                 88840145     15.95%     90.69% # Class of executed instruction
system.cpu.op_class::MemWrite                50036462      8.99%     99.67% # Class of executed instruction
system.cpu.op_class::FloatMemRead              573072      0.10%     99.78% # Class of executed instruction
system.cpu.op_class::FloatMemWrite            1252548      0.22%    100.00% # Class of executed instruction
system.cpu.op_class::IprAccess                      0      0.00%    100.00% # Class of executed instruction
system.cpu.op_class::InstPrefetch                   0      0.00%    100.00% # Class of executed instruction
system.cpu.op_class::total                  556853543                       # Class of executed instruction
system.membus.snoop_filter.tot_requests             0                       # Total number of requests made to the snoop filter.
system.membus.snoop_filter.hit_single_requests            0                       # Number of requests hitting in the snoop filter with a single holder of the requested data.
system.membus.snoop_filter.hit_multi_requests            0                       # Number of requests hitting in the snoop filter with multiple (>1) holders of the requested data.
system.membus.snoop_filter.tot_snoops               0                       # Total number of snoops made to the snoop filter.
system.membus.snoop_filter.hit_single_snoops            0                       # Number of snoops hitting in the snoop filter with a single holder of the requested data.
system.membus.snoop_filter.hit_multi_snoops            0                       # Number of snoops hitting in the snoop filter with multiple (>1) holders of the requested data.
system.membus.pwrStateResidencyTicks::UNDEFINED 38931420792000                       # Cumulative time (in ticks) in various power states
system.membus.trans_dist::ReadReq           645760156                       # Transaction distribution
system.membus.trans_dist::ReadResp          646013447                       # Transaction distribution
system.membus.trans_dist::WriteReq           51035712                       # Transaction distribution
system.membus.trans_dist::WriteResp          51035712                       # Transaction distribution
system.membus.trans_dist::LoadLockedReq        253292                       # Transaction distribution
system.membus.trans_dist::StoreCondReq         253292                       # Transaction distribution
system.membus.trans_dist::StoreCondResp        253292                       # Transaction distribution
system.membus.pkt_count_system.cpu.icache_port::system.mem_ctrls.port   1113707087                       # Packet count per connected master and slave (bytes)
system.membus.pkt_count_system.cpu.dcache_port::system.mem_ctrls.port    280897816                       # Packet count per connected master and slave (bytes)
system.membus.pkt_count::total             1394604903                       # Packet count per connected master and slave (bytes)
system.membus.pkt_size_system.cpu.icache_port::system.mem_ctrls.port   2227414172                       # Cumulative packet size per connected master and slave (bytes)
system.membus.pkt_size_system.cpu.dcache_port::system.mem_ctrls.port    935305109                       # Cumulative packet size per connected master and slave (bytes)
system.membus.pkt_size::total              3162719281                       # Cumulative packet size per connected master and slave (bytes)
system.membus.snoops                                0                       # Total snoops (count)
system.membus.snoopTraffic                          0                       # Total snoop traffic (bytes)
system.membus.snoop_fanout::samples         697302452                       # Request fanout histogram
system.membus.snoop_fanout::mean                    0                       # Request fanout histogram
system.membus.snoop_fanout::stdev                   0                       # Request fanout histogram
system.membus.snoop_fanout::underflows              0      0.00%      0.00% # Request fanout histogram
system.membus.snoop_fanout::0               697302452    100.00%    100.00% # Request fanout histogram
system.membus.snoop_fanout::1                       0      0.00%    100.00% # Request fanout histogram
system.membus.snoop_fanout::overflows               0      0.00%    100.00% # Request fanout histogram
system.membus.snoop_fanout::min_value               0                       # Request fanout histogram
system.membus.snoop_fanout::max_value               0                       # Request fanout histogram
system.membus.snoop_fanout::total           697302452                       # Request fanout histogram
system.membus.reqLayer0.occupancy        748591456000                       # Layer occupancy (ticks)
system.membus.reqLayer0.utilization               1.9                       # Layer utilization (%)
system.membus.respLayer1.occupancy       1268448917750                       # Layer occupancy (ticks)
system.membus.respLayer1.utilization              3.3                       # Layer utilization (%)
system.membus.respLayer2.occupancy       256306677000                       # Layer occupancy (ticks)
system.membus.respLayer2.utilization              0.7                       # Layer utilization (%)

---------- End Simulation Statistics   ----------
